<?xml version="1.0" encoding="UTF-8"?>

<!-- generated on 2024-12-07 13:30:31 by Eclipse SUMO netedit Version 1.21.0
-->

<routes xmlns:xsi="http://www.w3.org/2001/XMLSchema-instance" xsi:noNamespaceSchemaLocation="http://sumo.dlr.de/xsd/routes_file.xsd">
    <!-- Vehicles, persons and containers (sorted by depart) -->
    <trip id="t_0" depart="0.00" from="-E1" to="-E1.53"/>
    <trip id="t_1" depart="0.00" from="-E1" to="-E2"/>
    <trip id="t_10" depart="0.00" from="E2" to="-E1.53"/>
    <trip id="t_11" depart="0.00" from="E2" to="-E0"/>
    <trip id="t_13" depart="0.00" from="E2" to="-E0"/>
    <trip id="t_14" depart="0.00" from="E2" to="E1.45"/>
    <trip id="t_15" depart="0.00" from="E2" to="-E1.53"/>
    <trip id="t_16" depart="0.00" from="E1" to="E1.45"/>
    <trip id="t_17" depart="0.00" from="E1" to="-E2"/>
    <trip id="t_18" depart="0.00" from="E1" to="-E0"/>
    <trip id="t_19" depart="0.00" from="E1" to="E1.45"/>
    <trip id="t_2" depart="0.00" from="-E1" to="-E2"/>
    <trip id="t_20" depart="0.00" from="E1" to="-E2"/>
    <trip id="t_21" depart="0.00" from="E1" to="E1.45"/>
    <trip id="t_23" depart="0.00" from="E1" to="-E0"/>
    <trip id="t_24" depart="0.00" from="E0" to="-E2"/>
    <trip id="t_25" depart="0.00" from="E0" to="-E2"/>
    <trip id="t_26" depart="0.00" from="E0" to="-E1.53"/>
    <trip id="t_27" depart="0.00" from="E0" to="E1.45"/>
    <trip id="t_28" depart="0.00" from="E0" to="-E1.53"/>
    <trip id="t_29" depart="0.00" from="E0" to="-E2"/>
    <trip id="t_3" depart="0.00" from="-E1" to="-E0"/>
    <trip id="t_30" depart="0.00" from="E0" to="E1.45"/>
    <trip id="t_31" depart="0.00" from="E0" to="-E2"/>
    <trip id="t_4" depart="0.00" from="-E1" to="-E1.53"/>
    <trip id="t_5" depart="0.00" from="-E1" to="-E0"/>
    <trip id="t_6" depart="0.00" from="-E1" to="-E1.53"/>
    <trip id="t_7" depart="0.00" from="-E1" to="-E2"/>
    <trip id="t_9" depart="0.00" from="E2" to="-E1.53"/>
    <flow id="f_0" begin="0.00" from="E0" to="-E2" end="3600.00" vehsPerHour="1800"/>
    <flow id="f_1" begin="0.00" from="E0" to="E1.45" end="3600.00" vehsPerHour="1800"/>
    <flow id="f_10" begin="0.00" from="E1" to="-E2" end="3600.00" vehsPerHour="1800"/>
    <flow id="f_11" begin="0.00" from="E1" to="E1.45" end="3600.00" vehsPerHour="1800"/>
    <flow id="f_2" begin="0.00" from="E0" to="-E1.53" end="3600.00" vehsPerHour="1800"/>
    <flow id="f_3" begin="0.00" from="-E1" to="-E1.53" end="3600.00" vehsPerHour="1800"/>
    <flow id="f_4" begin="0.00" from="-E1" to="-E2" end="3600.00" vehsPerHour="1800"/>
    <flow id="f_5" begin="0.00" from="-E1" to="-E0" end="3600.00" vehsPerHour="1800"/>
    <flow id="f_6" begin="0.00" from="E2" to="-E0" end="3600.00" vehsPerHour="1800"/>
    <flow id="f_7" begin="0.00" from="E2" to="-E1.53" end="3600.00" vehsPerHour="1800"/>
    <flow id="f_8" begin="0.00" from="E2" to="E1.45" end="3600.00" vehsPerHour="1800"/>
    <flow id="f_9" begin="0.00" from="E1" to="-E0" end="3600.00" vehsPerHour="1800"/>
</routes>
