<?xml version="1.0" encoding="UTF-8"?>

<!-- generated on 2024-12-07 13:30:31 by Eclipse SUMO sumo Version 1.21.0
-->

<sumoConfiguration xmlns:xsi="http://www.w3.org/2001/XMLSchema-instance" xsi:noNamespaceSchemaLocation="http://sumo.dlr.de/xsd/sumoConfiguration.xsd">

    <input>
        <net-file value="test.net.xml"/>
        <route-files value="test&apos;.rou.xml"/>
        <additional-files value="test&apos;.add.xml"/>
    </input>

</sumoConfiguration>
