<?xml version="1.0" encoding="UTF-8"?>

<!-- generated on 2024-12-12 15:03:45 by Eclipse SUMO netedit Version 1.21.0
-->

<routes xmlns:xsi="http://www.w3.org/2001/XMLSchema-instance" xsi:noNamespaceSchemaLocation="http://sumo.dlr.de/xsd/routes_file.xsd">
    <!-- Vehicles, persons and containers (sorted by depart) -->
    <flow id="f_0" begin="0.00" from="E10" to="-E11" end="3600.00" vehsPerHour="1800"/>
    <flow id="f_1" begin="0.00" from="E10" to="E12" end="3600.00" vehsPerHour="1800"/>
    <flow id="f_2" begin="0.00" from="-E12" to="-E10" end="3600.00" vehsPerHour="1800"/>
    <flow id="f_3" begin="0.00" from="-E12" to="-E11" end="3600.00" vehsPerHour="1800"/>
    <flow id="f_4" begin="0.00" from="E11" to="E12" end="3600.00" vehsPerHour="1800"/>
    <flow id="f_5" begin="0.00" from="E11" to="-E10" end="3600.00" vehsPerHour="1800"/>
</routes>
