<?xml version="1.0" encoding="UTF-8"?>

<!-- generated on 2024-12-12 15:03:45 by Eclipse SUMO sumo Version 1.21.0
-->

<sumoConfiguration xmlns:xsi="http://www.w3.org/2001/XMLSchema-instance" xsi:noNamespaceSchemaLocation="http://sumo.dlr.de/xsd/sumoConfiguration.xsd">

    <input>
        <net-file value="U.net.xml"/>
        <route-files value="U.rou.xml"/>
        <additional-files value="U.add.xml"/>
    </input>

</sumoConfiguration>
